/*--------------------------------*- C++ -*----------------------------------*\
  =========                 |
  \\      /  F ield         | OpenFOAM: The Open Source CFD Toolbox
   \\    /   O peration     | Website:  https://openfoam.org
    \\  /    A nd           | Version:  dev
     \\/     M anipulation  |
\*---------------------------------------------------------------------------*/
FoamFile
{
    version     2.0;
    format      ascii;
    class       dictionary;
    object      fvSolution;
}
// * * * * * * * * * * * * * * * * * * * * * * * * * * * * * * * * * * * * * //

solvers
{
    "pcorr.*"
    {
        solver          GAMG;
        smoother        DICGaussSeidel;
        tolerance       0.001;
        relTol          0;
        maxIter         100;
    }

    p
    {
        $pcorr;
        tolerance       1e-8;
        relTol          0.01;
        maxIter         100;
    }

    pFinal
    {
        $p;
        relTol          0;
    }

    "(U|k|epsilon|rho|e)"
    {
        solver          PBiCGStab;
        preconditioner  DILU;
        tolerance       1e-8;
        relTol          0.01;
    }

    "(U|k|epsilon|rho|e)Final"
    {
        $U;
        relTol          0;
        maxIter         100;
    }
}

PIMPLE
{
    correctPhi          yes;//no;
    nOuterCorrectors    2;
    nCorrectors         3;
    nNonOrthogonalCorrectors 1;
}

relaxationFactors
{
   fields
    {
        p               0.5;
    }
    equations
    {
        "(U|k|epsion)"   0.7;
        "(U|k|epsion)Final" 0.7;
    }
}

cache
{
    grad(U);
}
// ************************************************************************* //
